---- qbsp / ericw-tools 2.0.0-alpha8-26-ged62ec10 ----

--- Options Summary ---
    "nocolor" was set to "1" (from command line)

Input file: C:\Users\ethan\Documents\GitHub\quake-dm-testmap\test-compile.map
Output file: C:\Users\ethan\Documents\GitHub\quake-dm-testmap\test.bsp

INFO: using built-in palette.
WARNING: test-compile.map[line 6]: Unrecognised string escape - \e
WARNING: test-compile.map[line 6]: Unrecognised string escape - \q
WARNING: test-compile.map[line 6]: Unrecognised string escape - \Q
fs::addArchive: WARNING: archive '..\extras\quake\trenchbroom-quake-map-source\QUAKE101.WAD' not found
    123 entities
     12 unique textures
    509 texinfos
    842 unique planes

INFO: world extents calculated to 5712 units
      433 brushes
    2,599 sides
      129 side bevels

            0 texture frames added
WARNING: unable to find texture skip
Processing hull 0...
    433 SOLID brushes
    433 brushes total
    2,599 visible sides
INFO: calculating BSP for 433 brushes with 2599 sides
      433 brushes
    2,599 visible faces
    4,634 nodes
    3,075 expensive split nodes
    1,559 mid-split nodes
    4,635 leaves
    2,563 EMPTY leafs
    2,072 SOLID leafs
    4,635 leafs total
    23 max tree height
    15 avg tree height
    299 tiny portals
    19,030 tree portals
WARNING: Reached occupant "item_spikes" at (-720 104 448), no filling performed.
Leak file written to test.pts
            5 portals written to test.leak.prt
    299 tiny portals
    19,030 tree portals
WARNING: 1 sides not found (use -verbose to display)
    5,420 sides visible
    5,420 makefaces
    1,027 merged
    1,130 subdivided
    401 nodes pruned
    2,563 EMPTY leafs
    1,671 SOLID leafs
    4,234 leafs total
    23 max tree height
    15 avg tree height
         1 edges degenerated
     3,893 edges added by tjunctions
     5,518 faces optimized through MWT
    14,933 triangles computed from MWT
       931 faces created via optimization of MWT triangles
    14,043 edges
     6,454 faces
Processing hull 1...
WARNING: Reached occupant "info_player_deathmatch" at (-112 96 472), no filling performed.
Processing hull 2...
WARNING: worldspawn at 0 0 0 has long value for key wad (length 157 >= 127)
Writing test.bsp as Quake BSP bsp29
Wrote test.bsp

count   lump name    byte size 
      1 models               64
    667 planes            13340
   7347 vertexes          88164
   4233 nodes            101592
    447 texinfos          17880
   6454 faces            129080
  19196 clipnodes        153568
   2564 leafs             71792
   6941 marksurfaces      13882
  14044 edges             56176
  27846 surfedges        111384
     12 textures         113372
        lightdata             0
        visdata               0
        entdata            5041

0.401s seconds elapsed


